@<TRIPOS>MOLECULE
benzox-bp86.log
 13 14 0 0 0
SMALL
GASTEIGER
****
Gaussian home/eliot/software/g09E01/g09 # opt bp86/SVP
@<TRIPOS>ATOM
      1 C          -1.4455    0.7254    0.1301 C.2     1  LIG1       -0.0634
      2 C          -0.3228    1.4409   -0.1933 C.2     1  LIG1       -0.0528
      3 C           0.9805    0.7695   -0.3139 C.3     1  LIG1        0.1076
      4 C           0.9805   -0.7695   -0.3139 C.3     1  LIG1        0.1076
      5 C          -0.3228   -1.4409   -0.1933 C.2     1  LIG1       -0.0528
      6 C          -1.4455   -0.7254    0.1301 C.2     1  LIG1       -0.0634
      7 H          -2.4058    1.2476    0.2722 H       1  LIG1        0.0615
      8 H          -0.3808    2.5223   -0.3974 H       1  LIG1        0.0598
      9 H          -0.3808   -2.5223   -0.3974 H       1  LIG1        0.0598
     10 H          -2.4058   -1.2476    0.2722 H       1  LIG1        0.0615
     11 O           1.4298    0.0000    0.8092 O.3     1  LIG1       -0.3595
     12 H           1.7940   -1.2976   -0.8489 H       1  LIG1        0.0670
     13 H           1.7940    1.2976   -0.8489 H       1  LIG1        0.0670
@<TRIPOS>BOND
     1    12     4    1
     2    13     3    1
     3     8     2    1
     4     9     5    1
     5     4     3    1
     6     4     5    1
     7     4    11    1
     8     3     2    1
     9     3    11    1
    10     5     6    2
    11     2     1    2
    12     1     6    1
    13     1     7    1
    14     6    10    1
