@<TRIPOS>MOLECULE
oxepin-bp86.log
 13 13 0 0 0
SMALL
GASTEIGER
****
Gaussian home/eliot/software/g09E01/g09 # opt bp86/SVP
@<TRIPOS>ATOM
      1 C          -1.4473    0.6852    0.1486 C.2     1  LIG1       -0.0588
      2 C          -0.3102    1.5104   -0.2394 C.2     1  LIG1       -0.0268
      3 C           0.9935    1.1515   -0.1270 C.2     1  LIG1        0.0916
      4 C           0.9935   -1.1515   -0.1270 C.2     1  LIG1        0.0916
      5 C          -0.3102   -1.5103   -0.2394 C.2     1  LIG1       -0.0268
      6 C          -1.4473   -0.6852    0.1486 C.2     1  LIG1       -0.0588
      7 H          -2.3960    1.2076    0.3604 H       1  LIG1        0.0619
      8 H          -0.5135    2.4993   -0.6852 H       1  LIG1        0.0648
      9 H          -0.5135   -2.4993   -0.6852 H       1  LIG1        0.0648
     10 H          -2.3960   -1.2076    0.3604 H       1  LIG1        0.0619
     11 O           1.4180   -0.0000    0.5323 O.2     1  LIG1       -0.4710
     12 H           1.8213   -1.7840   -0.4972 H       1  LIG1        0.1029
     13 H           1.8213    1.7840   -0.4972 H       1  LIG1        0.1029
@<TRIPOS>BOND
     1     8     2    1
     2     9     5    1
     3    12     4    1
     4    13     3    1
     5     2     3    2
     6     2     1    1
     7     5     4    2
     8     5     6    1
     9     3    11    1
    10     4    11    1
    11     1     6    2
    12     1     7    1
    13     6    10    1
