@<TRIPOS>MOLECULE
isooctane.pdb
 23 22 0 0 0
SMALL
GASTEIGER

@<TRIPOS>ATOM
      1  C          0.8780    0.3580   -0.0600 C.3     1  LIG1       -0.0554
      2  C          0.2820   -0.9300   -0.6100 C.3     1  LIG1       -0.0653
      3  C          2.4090    0.2870   -0.0200 C.3     1  LIG1       -0.0484
      4  C          3.1280    1.5500    0.5250 C.3     1  LIG1       -0.0377
      5  C          2.8100    2.7860   -0.3320 C.3     1  LIG1       -0.0601
      6  C          2.7320    1.8290    1.9840 C.3     1  LIG1       -0.0601
      7  C          4.6480    1.2960    0.4720 C.3     1  LIG1       -0.0601
      8  H          0.4760    0.5250    0.9450 H       1  LIG1        0.0263
      9  H          0.5490    1.1900   -0.6900 H       1  LIG1        0.0263
     10  H          0.5620   -1.7890    0.0080 H       1  LIG1        0.0230
     11  H          0.6260   -1.1160   -1.6330 H       1  LIG1        0.0230
     12  H         -0.8100   -0.8650   -0.6260 H       1  LIG1        0.0230
     13  H          2.7730    0.0820   -1.0360 H       1  LIG1        0.0270
     14  H          2.7020   -0.5790    0.5880 H       1  LIG1        0.0270
     15  H          1.7570    3.0750   -0.2530 H       1  LIG1        0.0235
     16  H          3.0320    2.6020   -1.3890 H       1  LIG1        0.0235
     17  H          3.4060    3.6500   -0.0130 H       1  LIG1        0.0235
     18  H          1.6760    2.1050    2.0730 H       1  LIG1        0.0235
     19  H          3.3180    2.6580    2.3990 H       1  LIG1        0.0235
     20  H          2.9060    0.9510    2.6160 H       1  LIG1        0.0235
     21  H          4.9820    1.1060   -0.5540 H       1  LIG1        0.0235
     22  H          4.9260    0.4290    1.0810 H       1  LIG1        0.0235
     23  H          5.2090    2.1600    0.8480 H       1  LIG1        0.0235
@<TRIPOS>BOND
     1     1     2    1
     2     1     3    1
     3     1     8    1
     4     1     9    1
     5     2    10    1
     6     2    11    1
     7     2    12    1
     8     3     4    1
     9     3    13    1
    10     3    14    1
    11     4     5    1
    12     4     6    1
    13     4     7    1
    14     5    15    1
    15     5    16    1
    16     5    17    1
    17     6    18    1
    18     6    19    1
    19     6    20    1
    20     7    21    1
    21     7    22    1
    22     7    23    1
